file 3649 1655436838                                            
version 2
run General-0-20220520-19:17:35-3229
attr configname General
attr datetime 20220520-19:17:35
attr datetimef 20220520-191735
attr experiment General
attr inifile omnetpp.ini
attr iterationvars ""
attr iterationvarsd ""
attr iterationvarsf ""
attr measurement ""
attr network myTestNetwork
attr processid 3229
attr repetition 0
attr replication #0
attr resultdir results
attr runnumber 0
attr seedset 0
config image-path ../../../../../ocean/inet/images:../../../../../ocean/veins/images
config cmdenv-express-mode true
config cmdenv-autoflush true
config cmdenv-status-frequency 1s
config **.cmdenv-log-level info
config ned-path .
config image-path ../../images
config network myTestNetwork
config debug-on-errors true
config print-undisposed true
config sim-time-limit 3000s
config **.scalar-recording true
config **.vector-recording true
config *.playgroundSizeX 5000m
config *.playgroundSizeY 2500m
config *.playgroundSizeZ 50m
config *.annotations.draw true
config *.manager.updateInterval 1s
config *.manager.host "\"localhost\""
config *.manager.port 9999
config *.manager.autoShutdown true
config *.manager.launchConfig "xmldoc(\"square.launchd.xml\")"
config *.rsu[0].mobility.x 100
config *.rsu[0].mobility.y 100
config *.rsu[0].mobility.z 3
config *.rsu[*].applType "\"RSUControlApp\""
config *.rsu[*].appl.headerLength "80 bit"
config *.rsu[*].appl.sendBeacons false
config *.rsu[*].appl.dataOnSch false
config *.rsu[*].nic.phy80211p.antennaOffsetZ "0 m"
config *.connectionManager.sendDirect true
config *.connectionManager.maxInterfDist 5000m
config *.connectionManager.drawMaxIntfDist false
config *.**.nic.mac1609_4.useServiceChannel true
config *.**.nic.mac1609_4.txPower 20mW
config *.**.nic.mac1609_4.bitrate 6Mbps
config *.**.nic.phy80211p.minPowerLevel -110dBm
config *.**.nic.phy80211p.useNoiseFloor true
config *.**.nic.phy80211p.noiseFloor -98dBm
config *.**.nic.phy80211p.decider "xmldoc(\"config.xml\")"
config *.**.nic.phy80211p.analogueModels "xmldoc(\"config.xml\")"
config *.**.nic.phy80211p.usePropagationDelay true
config *.**.nic.phy80211p.antenna "xmldoc(\"antenna.xml\", \"/root/Antenna[@id='monopole']\")"
config *.node[*].nic.phy80211p.antennaOffsetY "0 m"
config *.node[*].nic.phy80211p.antennaOffsetZ "1.895 m"
config *.node[*].applType "\"VehicleControlApp\""
config *.node[*].appl.headerLength "80 bit"
config *.node[*].appl.sendBeacons false
config *.node[*].appl.dataOnSch true
config *.node[*].appl.beaconInterval 1s
config *.node[*].veinsmobility.x 0
config *.node[*].veinsmobility.y 0
config *.node[*].veinsmobility.z 0
config *.node[*].veinsmobility.setHostSpeed false
config *.node[*0].veinsmobility.accidentCount 0

vector 0 myTestNetwork.node[0].veinsmobility posx ETV
0	2960 150 21 776 1 10 10 123.4 124.95447525683 1235.5544752568 152661.66088671
vector 1 myTestNetwork.node[0].veinsmobility posy ETV
1	3110 150 21 776 1 10 10 39.3 123.51088101412 771.00263101412 68766.869166697
vector 2 myTestNetwork.node[0].veinsmobility speed ETV
2	3260 123 104 776 2 10 9 2.6 15.6 84.59175 955.4950226875
vector 3 myTestNetwork.node[0].veinsmobility acceleration ETV
3	3383 104 188 776 3 10 8 -4.5 2.6 2.89725 75.5160575625
vector 4 myTestNetwork.node[0].veinsmobility co2emission ETV
4	3487 162 188 776 3 10 8 0.973 11.988212658094 44.275086525747 378.69461651024
