version 3
run General-0-20220520-19:17:35-3229
attr configname General
attr datetime 20220520-19:17:35
attr datetimef 20220520-191735
attr experiment General
attr inifile omnetpp.ini
attr iterationvars ""
attr iterationvarsd ""
attr iterationvarsf ""
attr measurement ""
attr network myTestNetwork
attr processid 3229
attr repetition 0
attr replication #0
attr resultdir results
attr runnumber 0
attr seedset 0
config image-path ../../../../../ocean/inet/images:../../../../../ocean/veins/images
config cmdenv-express-mode true
config cmdenv-autoflush true
config cmdenv-status-frequency 1s
config **.cmdenv-log-level info
config ned-path .
config image-path ../../images
config network myTestNetwork
config debug-on-errors true
config print-undisposed true
config sim-time-limit 3000s
config **.scalar-recording true
config **.vector-recording true
config *.playgroundSizeX 5000m
config *.playgroundSizeY 2500m
config *.playgroundSizeZ 50m
config *.annotations.draw true
config *.manager.updateInterval 1s
config *.manager.host "\"localhost\""
config *.manager.port 9999
config *.manager.autoShutdown true
config *.manager.launchConfig "xmldoc(\"square.launchd.xml\")"
config *.rsu[0].mobility.x 100
config *.rsu[0].mobility.y 100
config *.rsu[0].mobility.z 3
config *.rsu[*].applType "\"RSUControlApp\""
config *.rsu[*].appl.headerLength "80 bit"
config *.rsu[*].appl.sendBeacons false
config *.rsu[*].appl.dataOnSch false
config *.rsu[*].nic.phy80211p.antennaOffsetZ "0 m"
config *.connectionManager.sendDirect true
config *.connectionManager.maxInterfDist 5000m
config *.connectionManager.drawMaxIntfDist false
config *.**.nic.mac1609_4.useServiceChannel true
config *.**.nic.mac1609_4.txPower 20mW
config *.**.nic.mac1609_4.bitrate 6Mbps
config *.**.nic.phy80211p.minPowerLevel -110dBm
config *.**.nic.phy80211p.useNoiseFloor true
config *.**.nic.phy80211p.noiseFloor -98dBm
config *.**.nic.phy80211p.decider "xmldoc(\"config.xml\")"
config *.**.nic.phy80211p.analogueModels "xmldoc(\"config.xml\")"
config *.**.nic.phy80211p.usePropagationDelay true
config *.**.nic.phy80211p.antenna "xmldoc(\"antenna.xml\", \"/root/Antenna[@id='monopole']\")"
config *.node[*].nic.phy80211p.antennaOffsetY "0 m"
config *.node[*].nic.phy80211p.antennaOffsetZ "1.895 m"
config *.node[*].applType "\"VehicleControlApp\""
config *.node[*].appl.headerLength "80 bit"
config *.node[*].appl.sendBeacons false
config *.node[*].appl.dataOnSch true
config *.node[*].appl.beaconInterval 1s
config *.node[*].veinsmobility.x 0
config *.node[*].veinsmobility.y 0
config *.node[*].veinsmobility.z 0
config *.node[*].veinsmobility.setHostSpeed false
config *.node[*0].veinsmobility.accidentCount 0

vector 0 myTestNetwork.node[0].veinsmobility posx ETV
vector 1 myTestNetwork.node[0].veinsmobility posy ETV
vector 2 myTestNetwork.node[0].veinsmobility speed ETV
vector 3 myTestNetwork.node[0].veinsmobility acceleration ETV
vector 4 myTestNetwork.node[0].veinsmobility co2emission ETV
0	21	1	123.4
0	104	2	123.4
0	188	3	123.4
0	272	4	123.4
0	356	5	123.4
0	440	6	123.4
0	524	7	123.4
0	608	8	123.4
0	692	9	123.4
0	776	10	124.95447525683
1	21	1	39.3
1	104	2	41.9
1	188	3	47.1
1	272	4	54.9
1	356	5	65.3
1	440	6	78.3
1	524	7	93.9
1	608	8	108.39725
1	692	9	118.3945
1	776	10	123.51088101412
2	104	2	2.6
2	188	3	5.2
2	272	4	7.8
2	356	5	10.4
2	440	6	13
2	524	7	15.6
2	608	8	14.49725
2	692	9	9.99725
2	776	10	5.49725
3	188	3	2.6
3	272	4	2.6
3	356	5	2.6
3	440	6	2.6
3	524	7	2.6
3	608	8	-1.10275
3	692	9	-4.5
3	776	10	-4.5
4	188	3	4.632157209559
4	272	4	6.4175905822618
4	356	5	8.2322496764723
4	440	6	10.08587639936
4	524	7	11.988212658094
4	608	8	0.973
4	692	9	0.973
4	776	10	0.973

